*Heading
** Job name: bondedAnchor Model name: Model-1
** Generated by: Abaqus/CAE 2019
**
** Global preprint options:
**  - echo=NO      : do not echo the input file to the .dat file
**  - model=NO     : do not print full model definition
**  - history=NO   : do not print history output definitions
**  - contact=NO   : do not print contact definitions
*Preprint, echo=NO, model=NO, history=NO, contact=NO
**
** UEL
**
*Include, input="./incfiles/ueldef.inc"

**
** ============================================================
** PART DEFINITIONS
** ============================================================
**
** Each *Part defines geometry, mesh, sections, and orientations
** independently before being assembled later.
**

*Part, name=concrete
*Include, input="./mesh/modified/concrete.inp"
*Solid Section, elset=dummy, material=dummy
*End Part

** ------------------------------------------------------------

*Part, name=steel
** VARIANT: MERGED PLATE -- the steel mesh holds anchor + plate + mortar. There is
** no washer and no nut, and the anchor and plate share nodes (merged in Cubit), so
** no tie or contact is needed between them. They remain SEPARATE element sets so
** the two materials stay independently adjustable.
*Include, input="./mesh/steel.inp"

** Assign material to the steel plate elements
*Solid Section, elset=PLATE, material=STEEL_PLATE

** Assign material to the steel anchor elements
*Solid Section, elset=ANCHOR, material=STEEL_ANCHOR

** Define a cylindrical local coordinate system
** This is later used for the cohesive (mortar) behavior
*ORIENTATION, name=MORTAR_CYL, SYSTEM=CYLINDRICAL
0, 0, 0,   0, 1, 0
**
** First point: origin of the coordinate system
** Second point: direction of the cylinder axis

** ------------------------------------------------------------
** Cohesive section for the mortar layer
** ------------------------------------------------------------
**  - elset=MORTAR : cohesive elements
**  - material=stick_slip : traction–separation law
**  - response=TRACTION SEPARATION : cohesive formulation
**  - ORIENTATION=MORTAR_CYL : defines normal and shear directions
**  - STACK DIRECTION=ORIENTATION : thickness direction follows orientation
*COHESIVE SECTION, elset=MORTAR, material=stick_slip, response=TRACTION SEPARATION, ORIENTATION=MORTAR_CYL, STACK DIRECTION=ORIENTATION
*End Part

**
** ============================================================
** ASSEMBLY
** ============================================================
**
** The assembly instantiates parts and defines interactions
**

*Assembly, name=Assembly
** Create an instance of the concrete part
*Instance, name=concrete-1, part=concrete
*End Instance
** Create an instance of the steel part
*Instance, name=steel-1, part=steel
*End Instance
** ------------------------------------------------------------
** TIE CONSTRAINTS
** ------------------------------------------------------------
** Tie constraints enforce perfect bonding (no slip, no separation)
** between specified master and slave surfaces.
** First surface listed is the slave, second is the master.
**
** Only two ties in this variant:
**   Tie anchor to mortar
**   Tie mortar to concrete
** There is deliberately NO shaft/plate constraint of any kind. The plate hole is
** cut at exactly the anchor radius and the two bodies were MERGED in Cubit, so they
** share nodes -- the connection is rigid by construction and a tie or contact pair
** would be a redundant over-constraint.
*TIE, NAME=ANCHOR_TO_MORTAR, ADJUST=YES, TYPE=SURFACE TO SURFACE
steel-1.mortar_to_anchor, steel-1.anchor_to_mortar
*TIE, NAME=MORTAR_TO_CONCRETE, ADJUST=YES, TYPE=SURFACE TO SURFACE
concrete-1.concrete_to_mortar, steel-1.mortar_to_concrete
*End Assembly
**
** UEL Props
**
*Include, input="./incfiles/uelprops_GCDP_RWW_batch_E1_l4_As1.inc"
**
** ============================================================
** MATERIAL DEFINITIONS
** ============================================================
**
*Material, name=STEEL_ANCHOR
*Elastic
200000., 0.3
*DENSITY
7.85e-9
*Material, name=STEEL_PLATE
*Elastic
200000., 0.3
*DENSITY
7.85e-9
*Material, name=dummy
*Elastic
1e-6, 0.3
*DENSITY
2.4e-9
**
*Material, name=stick_slip
*Elastic, type=TRACTION
5400, 2700, 2700
*DENSITY
2e-9
**
** ============================================================
** CONTACT INTERACTIONS (General Contact — penalty, linear overclosure)
** ============================================================
**
** Interaction property: plate <-> concrete
*Surface Interaction, name="steel concrete"
*Surface Behavior, pressure-overclosure=linear
1e6
**
*Contact
*Contact Inclusions
steel-1.plate_bottom, concrete-1.concrete_top
*Contact Property Assignment
steel-1.plate_bottom, concrete-1.concrete_top, "steel concrete"
*Contact Formulation, type=SLIDING FORMULATION
steel-1.plate_bottom, concrete-1.concrete_top, SMALL SLIDING
**
** ============================================================
** BOUNDARY CONDITIONS
** ============================================================
**
** Fully constrain outer concrete boundaries (encastre-like behavior)
*Boundary
concrete-1.left,   1, 1
concrete-1.left,   2, 2
concrete-1.left,   3, 3
concrete-1.right,  1, 1
concrete-1.right,  2, 2
concrete-1.right,  3, 3
concrete-1.back,   1, 1
concrete-1.back,   2, 2
concrete-1.back,   3, 3
concrete-1.bottom,1, 1
concrete-1.bottom,2, 2
concrete-1.bottom,3, 3

** Symmetry boundary conditions in Z-direction
*Boundary
steel-1.z_symm, zSYMM
concrete-1.z_symm, zSYMM

** Fix plate movement in X-direction except where loaded
steel-1.plate_left_loading, 1, 1

**
** ============================================================
** ANALYSIS STEP
** ============================================================
**
** smooth step amplitude:
*Amplitude, name=step_amplitude, definition=SMOOTH STEP
0, 0
1, 1
** STEP: zero-length warm-up (solver initialization)
*Step, name=zero, nlgeom=no, inc=100000
*Static
0,0,0,0
*Restart, write, frequency=1, overlay
*Include, input="./incfiles/output.inc"
*Include, input="./incfiles/fileOutput.inc"
*end step
*Step, name=loading, nlgeom=no, inc=100000
*Dynamic
5e-3, 1, 1e-08, 5e-3
**
*Boundary, type=displacement, amplitude=step_amplitude
steel-1.plate_left_loading, 1, 1, 5.0
**
*Print, contact=yes
*Restart, write, frequency=1, overlay
*Include, input="./incfiles/output.inc"
*Include, input="./incfiles/fileOutput.inc"
*End Step

